
     RDKit          3D

 44 46  0  0  0  0  0  0  0  0999 V2000
   18.0551   40.4387    9.9915 H   0  0  0  0  0  0  0  0  0  0  0  0
   18.8280   40.7225    9.5250 O   0  0  0  0  0  0  0  0  0  0  0  0
   18.7201   40.6702    8.1775 C   0  0  0  0  0  0  0  0  0  0  0  0
   17.4628   40.4246    7.6169 C   0  0  0  0  0  0  0  0  0  0  0  0
   16.5860   40.3392    8.2417 H   0  0  0  0  0  0  0  0  0  0  0  0
   17.3432   40.3365    6.2286 C   0  0  0  0  0  0  0  0  0  0  0  0
   15.7616   40.3223    5.5402 Cl  0  0  0  0  0  0  0  0  0  0  0  0
   18.4874   40.4360    5.4089 C   0  0  0  0  0  0  0  0  0  0  0  0
   18.2417   40.3221    3.7148 Cl  0  0  0  0  0  0  0  0  0  0  0  0
   19.7678   40.7210    5.9571 C   0  0  0  0  0  0  0  0  0  0  0  0
   20.9848   40.9067    5.1222 C   0  0  0  0  0  0  0  0  0  0  0  0
   21.0811   41.9095    4.1336 C   0  0  0  0  0  0  0  0  0  0  0  0
   20.2557   42.5817    3.9490 H   0  0  0  0  0  0  0  0  0  0  0  0
   22.1789   42.0923    3.3676 N   0  0  0  0  0  0  0  0  0  0  0  0
   23.2234   41.2819    3.5776 C   0  0  0  0  0  0  0  0  0  0  0  0
   24.3616   41.4434    2.7724 N   0  0  0  0  0  0  0  0  0  0  0  0
   24.6897   42.7027    2.1090 C   0  0  0  0  0  0  0  0  0  0  0  0
   23.8280   43.3662    2.0467 H   0  0  0  0  0  0  0  0  0  0  0  0
   24.9772   42.4927    1.0794 H   0  0  0  0  0  0  0  0  0  0  0  0
   25.8394   43.4088    2.8551 C   0  0  0  0  0  0  0  0  0  0  0  0
   25.4791   43.6825    3.8478 H   0  0  0  0  0  0  0  0  0  0  0  0
   26.0751   44.3479    2.3532 H   0  0  0  0  0  0  0  0  0  0  0  0
   27.1068   42.5250    2.9898 C   0  0  0  0  0  0  0  0  0  0  0  0
   27.8470   42.4038    1.6390 C   0  0  0  0  0  0  0  0  0  0  0  0
   27.2290   41.9340    0.8744 H   0  0  0  0  0  0  0  0  0  0  0  0
   28.7555   41.8057    1.7331 H   0  0  0  0  0  0  0  0  0  0  0  0
   28.1363   43.3841    1.2574 H   0  0  0  0  0  0  0  0  0  0  0  0
   28.0355   43.1590    3.9441 N   0  0  0  0  0  0  0  0  0  0  0  0
   27.6085   43.2239    4.8584 H   0  0  0  0  0  0  0  0  0  0  0  0
   28.8878   42.6186    4.0059 H   0  0  0  0  0  0  0  0  0  0  0  0
   26.6940   41.1378    3.5447 C   0  0  0  0  0  0  0  0  0  0  0  0
   27.5395   40.4481    3.5209 H   0  0  0  0  0  0  0  0  0  0  0  0
   26.4116   41.2297    4.5950 H   0  0  0  0  0  0  0  0  0  0  0  0
   25.5017   40.5212    2.7882 C   0  0  0  0  0  0  0  0  0  0  0  0
   25.2363   39.5584    3.2257 H   0  0  0  0  0  0  0  0  0  0  0  0
   25.7835   40.3020    1.7580 H   0  0  0  0  0  0  0  0  0  0  0  0
   23.2553   40.3229    4.5030 N   0  0  0  0  0  0  0  0  0  0  0  0
   22.1561   40.1278    5.2545 C   0  0  0  0  0  0  0  0  0  0  0  0
   22.2453   39.1209    6.2043 N   0  0  0  0  0  0  0  0  0  0  0  0
   21.4358   38.8216    6.7250 H   0  0  0  0  0  0  0  0  0  0  0  0
   23.0833   38.5567    6.2978 H   0  0  0  0  0  0  0  0  0  0  0  0
   19.8584   40.8322    7.3636 C   0  0  0  0  0  0  0  0  0  0  0  0
   20.8138   41.0334    7.8284 H   0  0  0  0  0  0  0  0  0  0  0  0
   28.2538   44.0927    3.6163 H   0  0  0  0  0  0  0  0  0  0  0  0
  1  2  1  0
  2  3  1  0
  3 42  2  0
  3  4  1  0
  4  5  1  0
  4  6  2  0
  6  7  1  0
  6  8  1  0
  8  9  1  0
  8 10  2  0
 10 11  1  0
 10 42  1  0
 11 38  1  0
 11 12  2  0
 12 13  1  0
 12 14  1  0
 14 15  2  0
 15 16  1  0
 15 37  1  0
 16 34  1  0
 16 17  1  0
 17 18  1  0
 17 19  1  0
 17 20  1  0
 20 21  1  0
 20 22  1  0
 20 23  1  0
 23 24  1  0
 23 28  1  0
 23 31  1  0
 24 25  1  0
 24 26  1  0
 24 27  1  0
 28 29  1  0
 28 30  1  0
 28 44  1  0
 31 32  1  0
 31 33  1  0
 31 34  1  0
 34 35  1  0
 34 36  1  0
 37 38  2  0
 38 39  1  0
 39 40  1  0
 39 41  1  0
 42 43  1  0
M  CHG  1  28   1
M  END

>  <atom.dprop.PartialCharge>
0.4311799994876227 -0.48293000541426329 0.14122000254891728 -0.19596999965407039 0.16304999508164739 0.056629999654515734 -0.045759999079481611 -0.021000000534430994 -0.063129999561087141
0.0010199991494036194 -0.34808001003958372 0.49193999089501711 0.046029999034627428 -0.72289002023436211 0.8675500146319709 -0.75274998031355522 0.20329999841950749 0.070500000493749132
0.070500000493749132 -0.10876000009276057 0.073090001123174181 0.073090001123174181 0.15426999248765325 -0.13586999557711268 0.079690001087411394 0.079690001087411394 0.079690001087411394
-0.85377997241713188 0.45443001307748171 0.45443001307748171 -0.10876000009276057 0.073090001123174181 0.073090001123174181 0.20329999841950749 0.070500000493749132 0.070500000493749132
-0.8041300185749688 0.734279989378675 -0.94690001092650078 0.44653999723695131 0.44653999723695131 -0.13886000297762538 0.1659999928643546 0.45443001307748171

>  <b_lp_Chiralities_Consistent>
1

>  <i_epik_Tot_Q>
1

>  <i_epik_Tot_abs_Q>
1

>  <i_f3d_flags>
0

>  <i_i_glide_confnum>
22

>  <i_i_glide_lignum>
22

>  <i_i_glide_posenum>
28

>  <i_i_glide_rotatable_bonds>
3

>  <i_lp_mmshare_version>
53161

>  <i_m_source_file_index>
22

>  <ofe-name>
lig_E6

>  <r_epik_Charging_Adjusted_Penalty>
0.016736899999999999

>  <r_epik_Ionization_Penalty>
  0.2446

>  <r_epik_Ionization_Penalty_Charging>
  0.0167

>  <r_epik_Ionization_Penalty_Neutral>
  0.2278

>  <r_epik_State_Penalty>
 -0.0000

>  <r_i_docking_score>
-7.9075978148954498

>  <r_i_glide_ecoul>
-13.455665588378899

>  <r_i_glide_eff_state_penalty>
0

>  <r_i_glide_einternal>
0.48675468564033503

>  <r_i_glide_emodel>
-81.625476107138098

>  <r_i_glide_energy>
-58.423896789550803

>  <r_i_glide_erotb>
0.28276967665446001

>  <r_i_glide_esite>
0

>  <r_i_glide_evdw>
-44.968231201171903

>  <r_i_glide_gscore>
-7.9075978148954498

>  <r_i_glide_hbond>
-0.34089593326031398

>  <r_i_glide_ligand_efficiency>
-0.32948324228731002

>  <r_i_glide_ligand_efficiency_ln>
-1.89265101312419

>  <r_i_glide_ligand_efficiency_sa>
-0.95039412821792901

>  <r_i_glide_lipo>
-2.18453071212162

>  <r_i_glide_metal>
0

>  <r_i_glide_rewards>
-1.39817944785255

>  <r_i_glide_rmsd>
0.111200158426966

>  <r_lp_Energy>
40.213299999999997

>  <r_lp_tautomer_probability>
1

>  <s_epik_cmdline>
J2VwaWtfcHl0aG9uJywgJy1waHQnLCAnMC4wJywgJy1waCcsICc3LjQnLCAnLXRuJywgJzgnLCAnLW1hJywgJzUwMCcsICctaW1hZScsICc8aW5maWxlLm1hZT4nLCAnLW9tYWUnLCAnPG91dGZpbGUubWFlPic=

>  <s_epik_input>
W09IXWMxW2NIXWMoQ2wpYyhDbCljKFtjSF0xKS1jMltjSF1uYyhuYzJbTkgyXSlOKFtDSDJdW0NIMl0zKVtDSDJdW0NIMl1DMyhbQ0gzXSlbTkgyXQ==

>  <s_glide_core_constrain_type>
snapped_core_restrain

>  <s_i_glide_gridfile>
glide-grid_SHP2-5EHR

>  <s_lp_Force_Field>
S-OPLS

>  <s_lp_Variant>
lig_E6-1

>  <s_m_source_file>
ligprep_shp2.smi

$$$$
